Program Version,EnergyPlus, Version 8.4.0-09f5359d8a, YMD=2016.08.15 16:14
