Program Version,EnergyPlus, Version 8.5.0-c87e61b44b, YMD=2016.08.15 15:45
